Version 4
SHEET 1 1656 680
WIRE 896 -224 640 -224
WIRE 1152 -224 1040 -224
WIRE 1232 -224 1152 -224
WIRE 1392 -224 1312 -224
WIRE 1424 -224 1392 -224
WIRE 1488 -224 1488 -272
WIRE 1488 -224 1424 -224
WIRE 1600 -224 1488 -224
WIRE 896 -208 896 -224
WIRE 1152 -192 1152 -224
WIRE 1040 -176 1040 -224
WIRE 1488 -176 1488 -224
WIRE 1600 -176 1600 -224
WIRE -464 -112 -464 -160
WIRE -352 -112 -464 -112
WIRE -208 -112 -352 -112
WIRE 224 -112 -208 -112
WIRE 896 -112 896 -128
WIRE 896 -112 224 -112
WIRE 896 -96 896 -112
WIRE 640 -64 640 -224
WIRE -464 -48 -464 -112
WIRE 1040 -48 1040 -96
WIRE 1104 -48 1040 -48
WIRE 1248 -48 1104 -48
WIRE 1392 -48 1392 -224
WIRE 1392 -48 1328 -48
WIRE 224 -32 224 -112
WIRE 1104 -32 1104 -48
WIRE -352 -16 -352 -32
WIRE 960 -16 960 -224
WIRE 976 -16 976 -208
WIRE 896 0 896 -16
WIRE 896 0 800 0
WIRE -208 16 -208 -112
WIRE 64 16 -208 16
WIRE 592 16 368 16
WIRE 1152 32 1152 -128
WIRE 1152 32 1104 32
WIRE 1488 32 1488 -112
WIRE 1488 32 1152 32
WIRE 1600 32 1600 -96
WIRE 1600 32 1488 32
WIRE -464 48 -464 32
WIRE -352 64 -352 48
WIRE -128 80 -208 80
WIRE 64 80 -48 80
WIRE 752 80 368 80
WIRE 1152 80 1152 32
WIRE -208 144 -208 80
WIRE 64 144 -208 144
WIRE 448 144 368 144
WIRE 496 144 448 144
WIRE 640 144 640 32
WIRE 640 144 576 144
WIRE 800 144 800 96
WIRE 800 144 640 144
WIRE 800 176 800 144
WIRE 448 192 448 144
WIRE 64 208 -256 208
WIRE 1424 256 1424 -224
WIRE 64 272 -160 272
WIRE 800 272 800 256
WIRE 448 288 448 256
WIRE 64 336 -64 336
WIRE 592 336 368 336
WIRE 752 336 672 336
WIRE -256 368 -256 208
WIRE -160 400 -160 272
WIRE 64 400 32 400
WIRE 752 400 368 400
WIRE 1424 400 1424 336
WIRE 1424 400 752 400
WIRE 1424 416 1424 400
WIRE -64 480 -64 336
WIRE 32 528 32 400
WIRE 1424 528 1424 496
WIRE -256 624 -256 448
WIRE -160 624 -160 480
WIRE -160 624 -256 624
WIRE -64 624 -64 544
WIRE -64 624 -160 624
WIRE 32 624 32 592
WIRE 32 624 -64 624
WIRE 224 624 224 432
WIRE 224 624 32 624
WIRE 224 656 224 624
FLAG -464 48 0
FLAG -464 -160 Vin
FLAG -352 64 0
FLAG 224 656 0
FLAG 800 272 0
FLAG 448 288 0
FLAG 1488 -272 Out
FLAG 1152 80 0
FLAG 1424 528 0
SYMBOL PowerProducts\\LTC3723-1 224 192 R0
SYMATTR InstName U1
SYMBOL voltage -464 -64 R0
SYMATTR InstName Vin
SYMATTR Value 12
SYMBOL cap -368 -16 R0
SYMATTR InstName C1
SYMATTR Value 22µ
SYMBOL res -368 -128 R0
SYMATTR InstName R1
SYMATTR Value 10m
SYMBOL res -32 64 R90
WINDOW 0 0 56 VBottom 2
WINDOW 3 32 56 VTop 2
SYMATTR InstName R2
SYMATTR Value 200k
SYMBOL cap 16 528 R0
SYMATTR InstName C2
SYMATTR Value 270p
SYMBOL cap -80 480 R0
SYMATTR InstName C3
SYMATTR Value 0.1µ
SYMBOL res -176 384 R0
SYMATTR InstName R3
SYMATTR Value 10k
SYMBOL res -272 352 R0
SYMATTR InstName R4
SYMATTR Value 500k
SYMBOL nmos 592 -64 R0
SYMATTR InstName M1
SYMATTR Value BSC024NE2LS
SYMBOL nmos 752 0 R0
SYMATTR InstName M2
SYMATTR Value BSC024NE2LS
SYMBOL res 784 160 R0
SYMATTR InstName R5
SYMATTR Value 75m
SYMBOL res 592 128 R90
WINDOW 0 0 56 VBottom 2
WINDOW 3 32 56 VTop 2
SYMATTR InstName R6
SYMATTR Value 100
SYMBOL cap 432 192 R0
SYMATTR InstName C4
SYMATTR Value 10n
SYMBOL ind2 880 -224 R0
SYMATTR InstName L1
SYMATTR Value 1m
SYMATTR Type ind
SYMBOL ind2 880 -112 R0
SYMATTR InstName L2
SYMATTR Value 1m
SYMATTR Type ind
SYMBOL ind2 1056 -80 R180
WINDOW 0 36 80 Left 2
WINDOW 3 36 40 Left 2
SYMATTR InstName L4
SYMATTR Value 1m
SYMATTR Type ind
SYMBOL schottky 1168 -128 R180
WINDOW 0 24 64 Left 2
WINDOW 3 24 0 Left 2
SYMATTR InstName D1
SYMATTR Value 1N5817
SYMATTR Description Diode
SYMATTR Type diode
SYMBOL schottky 1120 32 R180
WINDOW 0 24 64 Left 2
WINDOW 3 24 0 Left 2
SYMATTR InstName D2
SYMATTR Value 1N5817
SYMATTR Description Diode
SYMATTR Type diode
SYMBOL ind 1328 -240 R90
WINDOW 0 5 56 VBottom 2
WINDOW 3 32 56 VTop 2
SYMATTR InstName L3
SYMATTR Value 20µ
SYMBOL ind 1344 -64 R90
WINDOW 0 5 56 VBottom 2
WINDOW 3 32 56 VTop 2
SYMATTR InstName L5
SYMATTR Value 20µ
SYMBOL cap 1472 -176 R0
SYMATTR InstName C5
SYMATTR Value 50µ
SYMBOL res 1584 -192 R0
SYMATTR InstName R7
SYMATTR Value 3
SYMBOL res 1408 240 R0
SYMATTR InstName R8
SYMATTR Value 15.8k
SYMBOL res 1408 400 R0
SYMATTR InstName R9
SYMATTR Value 5k
SYMBOL res 688 320 R90
WINDOW 0 0 56 VBottom 2
WINDOW 3 32 56 VTop 2
SYMATTR InstName R10
SYMATTR Value 5k
SYMBOL cap 736 336 R0
SYMATTR InstName C6
SYMATTR Value 0.006µ
TEXT -96 -192 Left 2 ;VIN=12V\nVO= 5V
TEXT 72 -192 Left 2 ;Soft start in 7ms
TEXT -64 128 Left 2 ;Dead Time
TEXT -520 248 Left 2 ;Compensation ramp
TEXT -448 272 Left 2 ;Soft Start
TEXT 480 288 Left 2 ;RC Filter
TEXT 504 224 Left 2 ;f>1Mhz
TEXT 912 -280 Left 2 !K L1 L2 L4 1
TEXT 392 424 Left 2 ;Vih Vil
TEXT 400 456 Left 2 ;Vih <5V
TEXT 1360 320 Left 2 ;1:3
RECTANGLE Normal 416 272 608 112 1
